-------------------------------------------------------
          Amber 20 SANDER                              2020
          -------------------------------------------------------

  [-O]verwriting output

File Assignments:

 Here is the input file:

Density equilibration
&cntrl
  imin= 0,                       ! Run molecular dynamics.
  nstlim=15000,                  ! Number of MD-steps to be performed.
  dt=0.002,                      ! Time step (ps)
  irest=1,                       ! Restart the simulation
  ntx=5,                         ! Initial file contains coordinates and velocities.
  ntpr=500, ntwx=500, ntwr=500,  ! Output options
  cut=8.0,                       ! non-bond cut off
  temp0=298,                     ! Temperature
  ntt=3, gamma_ln=3.0,           ! Temperature scaling using Langevin dynamics with the collision frequency in gamma_ln (psâˆ’1)
  ntb=2,                         ! Periodic conditiond at constant pressure
  ntc=2, ntf=2,                  ! Constrain lengths of bonds having hydrogen atoms (SHAKE)
  ntp=1, taup=2.0,               ! Pressure scaling
  iwrap=1, ioutfm=1,             ! Output trajectory options
/

--------------------------------------------------------------------------------
   1.  RESOURCE   USE:
--------------------------------------------------------------------------------

 getting box info from netcdf restart file
 NATOM  =   42310 NTYPES =      26 NBONH =   40814 MBONA  =    1531
 NTHETH =    3287 MTHETA =    2076 NPHIH =    6783 MPHIA  =    6611
 NHPARM =       0 NPARM  =       0 NNB   =   68696 NRES   =   13317
 NBONA  =    1531 NTHETA =    2076 NPHIA =    6611 NUMBND =      76
 NUMANG =     166 NPTRA  =     209 NATYP =      46 NPHB   =       1
 IFBOX  =       1 NMXRS  =      34 IFCAP =       0 NEXTRA =       0
 NCOPY  =       0

     BOX TYPE: RECTILINEAR

--------------------------------------------------------------------------------
   2.  CONTROL  DATA  FOR  THE  RUN
--------------------------------------------------------------------------------

GWS

General flags:
     imin    =       0, nmropt  =       0

Nature and format of input:
     ntx     =       5, irest   =       1, ntrx    =       1

Nature and format of output:
     ntxo    =       2, ntpr    =     500, ntrx    =       1, ntwr    =     500
     iwrap   =       1, ntwx    =     500, ntwv    =       0, ntwe    =       0
     ioutfm  =       1, ntwprt  =       0, idecomp =       0, rbornstat=      0

Potential function:
     ntf     =       2, ntb     =       2, igb     =       0, nsnb    =      25
     ipol    =       0, gbsa    =       0, iesp    =       0
     dielc   =   1.00000, cut     =   8.00000, intdiel =   1.00000

Frozen or restrained atoms:
     ibelly  =       0, ntr     =       0

Molecular dynamics:
     nstlim  =     15000, nscm    =      1000, nrespa  =         1
     t       =   0.00000, dt      =   0.00200, vlimit  =  20.00000

Langevin dynamics temperature regulation:
     ig      =   71277
     temp0   = 298.00000, tempi   =   0.00000, gamma_ln=   3.00000

Pressure regulation:
     ntp     =       1
     pres0   =   1.00000, comp    =  44.60000, taup    =   2.00000

SHAKE:
     ntc     =       2, jfastw  =       0
     tol     =   0.00001

Ewald parameters:
     verbose =       0, ew_type =       0, nbflag  =       1, use_pme =       1
     vdwmeth =       1, eedmeth =       1, netfrc  =       1
     Box X =   80.361   Box Y =   80.729   Box Z =   80.740
     Alpha =   90.000   Beta  =   90.000   Gamma =   90.000
     NFFT1 =   80       NFFT2 =   80       NFFT3 =   80
     Cutoff=    8.000   Tol   =0.100E-04
     Ewald Coefficient =  0.34864
     Interpolation order =    4

--------------------------------------------------------------------------------
   3.  ATOMIC COORDINATES AND VELOCITIES
--------------------------------------------------------------------------------

GWS
 begin time read from input coords =    30.000 ps

 Number of triangulated 3-point waters found:    13121

     Sum of charges from parm topology file =  -0.00000011
     Forcing neutrality...

--------------------------------------------------------------------------------
   4.  RESULTS
 NSTEP =      500   TIME(PS) =      31.000  TEMP(K) =   297.99  PRESS =  -536.2
 Etot   =   -101081.1962  EKtot   =     25497.3702  EPtot      =   -126578.5664
 BOND   =       589.4409  ANGLE   =      1537.2278  DIHED      =      2442.6292
 1-4 NB =       660.4822  1-4 EEL =      8082.3340  VDWAALS    =     16694.8201
 EELEC  =   -156585.5005  EHBOND  =         0.0000  RESTRAINT  =         0.0000
 EKCMT  =     11747.3730  VIRIAL  =     17739.9157  VOLUME     =    517624.8447
                                                    Density    =         0.8270
 Ewald error estimate:   0.4655E-05
 ------------------------------------------------------------------------------

      A V E R A G E S   O V E R   15000 S T E P S

 NSTEP =    15000   TIME(PS) =      60.000  TEMP(K) =   298.01  PRESS =  -251.1
 Etot   =   -102806.1425  EKtot   =     25499.1864  EPtot      =   -128305.3289
 BOND   =       564.6755  ANGLE   =      1515.7646  DIHED      =      2446.0825
 1-4 NB =       673.2793  1-4 EEL =      8102.5916  VDWAALS    =     16781.7788
 EELEC  =   -158389.5013  EHBOND  =         0.0000  RESTRAINT  =         0.0000
 EKCMT  =     11694.9241  VIRIAL  =     14308.5533  VOLUME     =    472314.0191
                                                    Density    =         0.9084
 Ewald error estimate:   0.4970E-04
 ------------------------------------------------------------------------------

      R M S  F L U C T U A T I O N S

 NSTEP =    15000   TIME(PS) =      60.000  TEMP(K) =     1.41  PRESS =   146.6
 Etot   =       883.6102  EKtot   =       120.3966  EPtot      =       860.3338
 BOND   =        19.8376  ANGLE   =        29.9211  DIHED      =        15.9502
 1-4 NB =        10.5871  1-4 EEL =        28.7805  VDWAALS    =       184.0331
 EELEC  =       952.4307  EHBOND  =         0.0000  RESTRAINT  =         0.0000
 EKCMT  =        82.0501  VIRIAL  =      1620.2143  VOLUME     =     22834.4413
                                                    Density    =         0.0429
 Ewald error estimate:   0.3610E-04
 ------------------------------------------------------------------------------
